Info: SIMULATION PARAMETERS:
Info: TIMESTEP               2
Info: NUMBER OF STEPS        0
Info: STEPS PER CYCLE        10
Info: PERIODIC CELL BASIS 1  49 0 0
Info: PERIODIC CELL BASIS 2  0 44 0
Info: PERIODIC CELL BASIS 3  0 0 55
Info: PERIODIC CELL CENTER   0.756965 22.0924 19.1947
Info: FIRST LDB TIMESTEP     50
Info: LAST LDB TIMESTEP     -1
Info: HOM BACKGROUND SCALING 1
Info: PME BACKGROUND SCALING 1
Info: MIN ATOMS PER PATCH    40
Info: EMPTY PATCH LOAD       40 ATOMS
Info: INITIAL TEMPERATURE    350
Info: CENTER OF MASS MOVING INITIALLY? NO
Info: DIELECTRIC             1
Info: EXCLUDE                SCALED ONE-FOUR
Info: 1-4 ELECTROSTATICS SCALED BY 1
Info: MODIFIED 1-4 VDW PARAMETERS WILL BE USED
Info: DCD FILENAME           simulation_output/result.dcd
Info: DCD FREQUENCY          5000
Info: DCD FIRST STEP         5000
Info: DCD FILE WILL CONTAIN UNIT CELL DATA
Info: NO EXTENDED SYSTEM TRAJECTORY OUTPUT
Info: NO VELOCITY DCD OUTPUT
Info: NO FORCE DCD OUTPUT
Info: OUTPUT FILENAME        simulation_output/result
Info: BINARY OUTPUT FILES WILL BE USED
Info: NO RESTART FILE
Info: SWITCHING ACTIVE
Info: SWITCHING ON           10
Info: SWITCHING OFF          12
Info: PAIRLIST DISTANCE      14
Info: PAIRLIST SHRINK RATE   0.01
Info: PAIRLIST GROW RATE     0.01
Info: PAIRLIST TRIGGER       0.3
Info: PAIRLISTS PER CYCLE    2
Info: PAIRLISTS ENABLED
Info: MARGIN                 0.495
Info: HYDROGEN GROUP CUTOFF  2.5
Info: PATCH DIMENSION        16.995
Info: ENERGY OUTPUT STEPS    100
Info: ENERGY EVALUATION STEPS    100
Info: OUTPUT ENERGY PRECISION 4
Info: CROSSTERM ENERGY INCLUDED IN DIHEDRAL
Info: TIMING OUTPUT STEPS    1000
Info: PRESSURE OUTPUT STEPS  100
Info: LANGEVIN DYNAMICS ACTIVE
Info: LANGEVIN TEMPERATURE   350
Info: LANGEVIN USING BBK INTEGRATOR
Info: LANGEVIN DAMPING COEFFICIENT IS 1 INVERSE PS
Info: LANGEVIN DYNAMICS NOT APPLIED TO HYDROGENS
Info: LANGEVIN PISTON PRESSURE CONTROL ACTIVE
Info:        TARGET PRESSURE IS 1.01325 BAR
Info:     OSCILLATION PERIOD IS 100 FS
Info:             DECAY TIME IS 50 FS
Info:     PISTON TEMPERATURE IS 350 K
Info:       PRESSURE CONTROL IS GROUP-BASED
Info:    INITIAL STRAIN RATE IS 0 0 0
Info:       CELL FLUCTUATION IS ISOTROPIC
Info: PARTICLE MESH EWALD (PME) ACTIVE
Info: PME TOLERANCE               1e-06
Info: PME EWALD COEFFICIENT       0.257952
Info: PME INTERPOLATION ORDER     4
Info: PME GRID DIMENSIONS         54 44 56
Info: PME MAXIMUM GRID SPACING    1
Info: PME CALCULATION WILL BE PERFORMED ON GPU
Info: FULL ELECTROSTATIC EVALUATION FREQUENCY      2
Info: USING VERLET I (r-RESPA) MTS SCHEME.
Info: C1 SPLITTING OF LONG RANGE ELECTROSTATICS
Info: PLACING ATOMS IN PATCHES BY HYDROGEN GROUPS
Info: RIGID BONDS TO HYDROGEN : ALL
Info:         ERROR TOLERANCE : 1e-08
Info:          MAX ITERATIONS : 100
Info: RIGID WATER USING SETTLE ALGORITHM
Info: RANDOM NUMBER SEED     1732453331
Info: USE HYDROGEN BONDS?    NO
Info: COORDINATE PDB         proteins/ionized.pdb
Info: STRUCTURE FILE         proteins/ionized.psf
Info: PARAMETER file: CHARMM format!
Info: PARAMETERS             par_all27_prot_lipid.inp
Info: USING ARITHMETIC MEAN TO COMBINE L-J SIGMA PARAMETERS
Info: SUMMARY OF PARAMETERS:
Info: 180 BONDS
Info: 447 ANGLES
Info: 566 DIHEDRAL
Info: 46 IMPROPER
Info: 6 CROSSTERM
Info: 119 VDW
Info: 0 VDW_PAIRS
Info: 0 NBTHOLE_PAIRS
Info: STRUCTURE SUMMARY:
Info: 10462 ATOMS
Info: 7644 BONDS
Info: 6370 ANGLES
Info: 5171 DIHEDRALS
Info: 351 IMPROPERS
Info: 0 CROSSTERMS
Info: 0 EXCLUSIONS
Info: 9455 RIGID BONDS
Info: 21931 DEGREES OF FREEDOM
Info: 3837 HYDROGEN GROUPS
Info: 4 ATOMS IN LARGEST HYDROGEN GROUP
Info: 3837 MIGRATION GROUPS
Info: 4 ATOMS IN LARGEST MIGRATION GROUP
Info: TOTAL MASS = 65558.4 amu
Info: TOTAL CHARGE = 1.2368e-06 e
Info: MASS DENSITY = 0.918071 g/cm^3
Info: ATOM DENSITY = 0.0882274 atoms/A^3
Info: ADDED 19104 IMPLICIT EXCLUSIONS
Info: NONBONDED TABLE R-SQUARED SPACING: 0.0625
Info: NONBONDED TABLE SIZE: 769 POINTS
Info: REMOVING COM VELOCITY 0.0333366 0.0481378 0.0339717
Info: Use 3D box decompostion in PME FFT.
Info: Updated CUDA force table with 4096 elements.
Info: Updated CUDA LJ table with 119 x 119 elements.
Info: Found 253 unique exclusion lists needing 768 bytes
TCL: Minimizing for 500 steps
ETITLE: TS BOND ANGLE DIHED IMPRP ELECT VDW BOUNDARY MISC KINETIC TOTAL TEMP POTENTIAL TOTAL3 TEMPAVG PRESSURE GPRESSURE VOLUME PRESSAVG GPRESSAVG
ENERGY: 0 679.3909 933.8688 615.4501 2.5347 -28374.2471 699615.4393 0.0000 0.0000 0.0000 673472.4367 0.0000 673472.4367 673472.4367 0.0000 -229.9891 203832.9873 118580.0000 -229.9891 203832.9873
ENERGY: 100 157.3148 400.5527 612.5206 20.3545 -34690.4657 1263.0219 0.0000 0.0000 0.0000 -32236.7013 0.0000 -32236.7013 -32236.7013 0.0000 -103.9034 -14981.4545 118580.0000 -103.9034 -14981.4545
ENERGY: 200 117.0744 348.8425 567.5690 13.9446 -37413.1372 1761.2217 0.0000 0.0000 0.0000 -34604.4850 0.0000 -34604.4850 -34604.4850 0.0000 -83.4822 -16428.6286 118580.0000 -83.4822 -16428.6286
ENERGY: 300 135.0723 355.4687 559.5346 14.1192 -39204.9968 2313.8827 0.0000 0.0000 0.0000 -35826.9195 0.0000 -35826.9195 -35826.9195 0.0000 -71.2821 -17307.1506 118580.0000 -71.2821 -17307.1506
ENERGY: 400 118.7084 349.8993 550.3407 13.1927 -39783.3527 2346.7859 0.0000 0.0000 0.0000 -36404.4256 0.0000 -36404.4256 -36404.4256 0.0000 -67.6036 -17652.6861 118580.0000 -67.6036 -17652.6861
ENERGY: 500 115.1595 346.2459 542.9103 13.1023 -40573.0988 2608.2941 0.0000 0.0000 0.0000 -36947.3866 0.0000 -36947.3866 -36947.3866 0.0000 -64.5357 -18043.9366 118580.0000 -64.5357 -18043.9366
TCL: Running for 500000 steps
ETITLE: TS BOND ANGLE DIHED IMPRP ELECT VDW BOUNDARY MISC KINETIC TOTAL TEMP POTENTIAL TOTAL3 TEMPAVG PRESSURE GPRESSURE VOLUME PRESSAVG GPRESSAVG
ENERGY: 500 115.1595 346.2459 542.9103 13.1023 -40573.0988 2608.2941 0.0000 0.0000 7687.1503 -29260.2363 352.7746 -36947.3866 -29266.0256 352.7746 -3752.1787 -3711.7035 118580.0000 -3752.1787 -3711.7035
ENERGY: 1800 389.1080 1093.4103 670.0594 74.3615 -37124.3045 2479.1900 0.0000 0.0000 6670.8649 -25747.3105 306.1358 -32418.1754 -25720.6163 302.1537 443.8299 471.3164 102479.0632 -23.4317 -24.3561
ENERGY: 3000 433.1947 1140.9982 686.8198 77.7189 -36068.3332 2206.8914 0.0000 0.0000 7104.0567 -24418.6535 326.0156 -31522.7102 -24387.8761 324.0822 294.9650 316.1613 103598.2632 -6.8262 -7.0254
ENERGY: 4300 436.1527 1163.7622 675.5774 81.8760 -35399.6562 2074.5768 0.0000 0.0000 7332.9208 -23634.7903 336.5185 -30967.7111 -23602.2269 339.3785 393.2373 419.9064 104850.6798 36.6052 36.4987
ENERGY: 5500 464.0764 1208.9704 694.9977 70.1751 -35092.9995 1915.6479 0.0000 0.0000 7511.0336 -23228.0985 344.6924 -30739.1321 -23196.8967 345.0561 -327.6822 -289.4889 105871.2621 33.1648 32.7238
ENERGY: 6800 448.5475 1188.4293 679.2992 77.2210 -35144.3861 2041.2296 0.0000 0.0000 7602.9513 -23106.7081 348.9106 -30709.6594 -23073.2963 346.9836 561.6538 577.4479 105351.9930 -17.2087 -17.2533
